validation_cases/hpk11/outputs/hpk11_master.dss
clear
Set DefaultBaseFrequency = 50
New circuit.circuit basekv=66 pu=1 angle=0 phases=3 R1=0.52824 X1=2.113 R0=0.59157 X0=1.7747
edit vsource.source bus1=sourcebus basekv=66 pu=1 angle=0 phases=3 R1=0.52824 X1=2.113 R0=0.59157 X0=1.7
New Transformer.HPK11 phases=3 windings=2 buses=[SourceBus, mv_f0_n319] conns=[delta, wye] kVs=[66, 22] kVAs=[100000, 100000] %loadloss=0.0001 %noloadloss=0.0001 xhl=0.0001 enabled=true
new linecode.lc_0-3ph nphases=3 r1=0.001 x1=0.001 b1=0.001 r0=0.001 x0=0.001 b0=0.001 units=km normamp=1000.0
new linecode.lc_1-3ph nphases=3 r1=2.243 x1=0.422 b1=3.7 r0=1.755 x0=2.393 b0=3.7 units=km normamp=103.0
new linecode.lc_2-3ph nphases=3 r1=0.211 x1=0.106 b1=70.086 r0=0.257 x0=0.801 b0=70.086 units=km normamp=315.0
new linecode.lc_3-3ph nphases=3 r1=0.348 x1=0.081 b1=130.0 r0=0.759 x0=1.257 b0=130.0 units=km normamp=210.0
new linecode.lc_4-3ph nphases=3 r1=0.233 x1=0.078 b1=150.8 r0=0.666 x0=1.122 b0=150.8 units=km normamp=260.0
new linecode.lc_5-3ph nphases=3 r1=0.168 x1=0.076 b1=170.0 r0=0.66 x0=1.032 b0=170.0 units=km normamp=330.0
new linecode.lc_6-3ph nphases=3 r1=0.133 x1=0.074 b1=185.35 r0=0.541 x0=0.95 b0=185.35 units=km normamp=345.0
new linecode.lc_7-3ph nphases=3 r1=0.084 x1=0.07 b1=230.0 r0=0.38 x0=0.757 b0=230.0 units=km normamp=445.0
new linecode.lc_8-3ph nphases=3 r1=0.065 x1=0.069 b1=251.33 r0=0.301 x0=0.659 b0=251.33 units=km normamp=485.0
new linecode.lc_9-3ph nphases=3 r1=0.14 x1=0.076 b1=249.76 r0=0.527 x0=0.974 b0=249.76 units=km normamp=370.0
new linecode.lc_10-3ph nphases=3 r1=0.147 x1=0.11 b1=144.5 r0=0.249 x0=0.776 b0=144.5 units=km normamp=330.0
new linecode.lc_11-3ph nphases=3 r1=0.12 x1=0.075 b1=267.0 r0=0.468 x0=0.883 b0=267.0 units=km normamp=390.0
new linecode.lc_12-3ph nphases=3 r1=0.118 x1=0.106 b1=157.0 r0=0.201 x0=0.65 b0=157.0 units=km normamp=365.0
new linecode.lc_13-3ph nphases=3 r1=0.074 x1=0.071 b1=329.9 r0=0.289 x0=0.664 b0=329.9 units=km normamp=500.0
new linecode.lc_14-3ph nphases=3 r1=0.078 x1=0.099 b1=194.8 r0=0.148 x0=0.53 b0=194.8 units=km normamp=465.0
new linecode.lc_15-3ph nphases=3 r1=0.055 x1=0.092 b1=238.76 r0=0.45 x0=0.84 b0=238.76 units=km normamp=565.0
new linecode.lc_16-3ph nphases=3 r1=0.038 x1=0.089 b1=263.89 r0=0.347 x0=0.741 b0=263.89 units=km normamp=645.0
new linecode.lc_17-3ph nphases=3 r1=0.316 x1=0.124 b1=106.8 r0=0.392 x0=1.091 b0=106.8 units=km normamp=215.0
new linecode.lc_18-3ph nphases=3 r1=0.35 x1=0.126 b1=102.1 r0=0.401 x0=1.115 b0=102.1 units=km normamp=215.0
new linecode.lc_19-3ph nphases=3 r1=0.17 x1=0.112 b1=136.7 r0=0.287 x0=0.857 b0=136.7 units=km normamp=300.0
new linecode.lc_20-3ph nphases=3 r1=0.098 x1=0.099 b1=157.08 r0=0.153 x0=0.436 b0=157.08 units=km normamp=420.0
new linecode.lc_21-3ph nphases=3 r1=0.47 x1=0.084 b1=0.0001 r0=0.865 x0=1.413 b0=0.0001 units=km normamp=128.0
new linecode.lc_22-3ph nphases=3 r1=0.11 x1=0.072 b1=202.63 r0=0.487 x0=0.871 b0=202.63 units=km normamp=430.0
new linecode.lc_23-3ph nphases=3 r1=0.04 x1=0.066 b1=281.17 r0=0.228 x0=0.564 b0=281.17 units=km normamp=625.0
new linecode.lc_24-3ph nphases=3 r1=0.113 x1=0.071 b1=188.5 r0=0.313 x0=0.736 b0=188.5 units=km normamp=400.0
new linecode.lc_25-3ph nphases=3 r1=1.113 x1=0.14 b1=40.85 r0=0.453 x0=1.889 b0=40.85 units=km normamp=125.0
new linecode.lc_26-3ph nphases=3 r1=0.161 x1=0.101 b1=77.6 r0=0.189 x0=0.654 b0=77.6 units=km normamp=365.0
new linecode.lc_27-3ph nphases=3 r1=0.218 x1=0.118 b1=122.52 r0=0.346 x0=0.982 b0=122.52 units=km normamp=260.0
new linecode.lc_28-3ph nphases=3 r1=0.138 x1=0.108 b1=149.2 r0=0.231 x0=0.718 b0=149.2 units=km normamp=345.0
new linecode.lc_29-3ph nphases=3 r1=1.116 x1=0.149 b1=40.85 r0=0.453 x0=1.889 b0=40.85 units=km normamp=125.0
new linecode.lc_30-3ph nphases=3 r1=0.076 x1=0.096 b1=104.32 r0=0.063 x0=0.239 b0=104.32 units=km normamp=625.0
new linecode.lc_31-3ph nphases=3 r1=0.233 x1=0.078 b1=94.52 r0=0.666 x0=1.122 b0=94.52 units=km normamp=255.0
new linecode.lc_32-3ph nphases=3 r1=0.233 x1=0.078 b1=94.52 r0=0.666 x0=1.122 b0=94.52 units=km normamp=255.0
new linecode.lc_33-3ph nphases=3 r1=0.233 x1=0.078 b1=94.52 r0=0.666 x0=1.122 b0=94.52 units=km normamp=255.0
new linecode.lc_34-3ph nphases=3 r1=0.133 x1=0.0737 b1=116.19 r0=0.541 x0=0.95 b0=116.19 units=km normamp=345.0
new linecode.lc_35-3ph nphases=3 r1=0.133 x1=0.0737 b1=116.19 r0=0.541 x0=0.95 b0=116.19 units=km normamp=345.0
new linecode.lc_36-3ph nphases=3 r1=0.133 x1=0.0737 b1=116.19 r0=0.541 x0=0.95 b0=116.19 units=km normamp=345.0
new linecode.lc_37-3ph nphases=3 r1=0.133 x1=0.0737 b1=116.19 r0=0.541 x0=0.95 b0=116.19 units=km normamp=345.0
new linecode.lc_38-3ph nphases=3 r1=0.149 x1=0.0708 b1=150.26 r0=0.372 x0=0.826 b0=150.26 units=km normamp=345.0
new linecode.lc_39-3ph nphases=3 r1=0.149 x1=0.0708 b1=150.26 r0=0.372 x0=0.826 b0=150.26 units=km normamp=345.0
new linecode.lc_40-3ph nphases=3 r1=0.068 x1=0.0908 b1=196.93 r0=0.746 x0=1.018 b0=196.93 units=km normamp=330.0
new linecode.lc_41-3ph nphases=3 r1=0.12 x1=0.0747 b1=361.29 r0=0.468 x0=0.883 b0=361.29 units=km normamp=390.0
new linecode.lc_42-3ph nphases=3 r1=0.12 x1=0.0747 b1=361.29 r0=0.468 x0=0.883 b0=361.29 units=km normamp=390.0
new linecode.lc_43-3ph nphases=3 r1=0.074 x1=0.0711 b1=329.8 r0=0.289 x0=0.664 b0=329.8 units=km normamp=500.0
new linecode.lc_44-3ph nphases=3 r1=10.824 x1=2.243000031 b1=0.0001 r0=3.51699996 x0=10.97299957 b0=0.0001 units=km normamp=25.0
new linecode.lc_45-3ph nphases=3 r1=10.824 x1=0.6649 b1=0.0001 r0=0.6649 x0=10.824 b0=0.0001 units=km normamp=28.0
new linecode.lc_46-3ph nphases=3 r1=10.824 x1=2.243000031 b1=0.0001 r0=3.51699996 x0=10.97299957 b0=0.0001 units=km normamp=28.0
new linecode.lc_47-3ph nphases=3 r1=6.015 x1=0.745999992 b1=0.0001 r0=1.901000023 x0=6.164000034 b0=0.0001 units=km normamp=33.0
new linecode.lc_48-3ph nphases=3 r1=4.6 x1=1.2 b1=3.08 r0=1.2 x0=4.6 b0=3.08 units=km normamp=44.0
new linecode.lc_49-3ph nphases=3 r1=0.794 x1=0.395000011 b1=3.7 r0=1.646000028 x0=0.941999972 b0=3.7 units=km normamp=200.0
new linecode.lc_50-3ph nphases=3 r1=0.794 x1=0.395000011 b1=3.7 r0=1.646000028 x0=0.941999972 b0=3.7 units=km normamp=98.0
new linecode.lc_51-3ph nphases=3 r1=0.794 x1=0.395000011 b1=3.7 r0=1.646000028 x0=0.941999972 b0=3.7 units=km normamp=133.0
new linecode.lc_52-3ph nphases=3 r1=0.794 x1=0.395000011 b1=3.7 r0=1.646000028 x0=0.941999972 b0=3.7 units=km normamp=147.0
new linecode.lc_53-3ph nphases=3 r1=0.794 x1=0.395000011 b1=3.7 r0=1.646000028 x0=0.941999972 b0=3.7 units=km normamp=180.0
new linecode.lc_54-3ph nphases=3 r1=0.499 x1=0.377999991 b1=3.058 r0=1.633000016 x0=0.646000028 b0=3.058 units=km normamp=132.0
new linecode.lc_55-3ph nphases=3 r1=0.499 x1=0.377999991 b1=3.058 r0=1.633000016 x0=0.646000028 b0=3.058 units=km normamp=185.0
new linecode.lc_56-3ph nphases=3 r1=0.499 x1=0.377999991 b1=3.058 r0=1.633000016 x0=0.646000028 b0=3.058 units=km normamp=205.0
new linecode.lc_57-3ph nphases=3 r1=0.499 x1=0.377999991 b1=3.058 r0=1.633000016 x0=0.646000028 b0=3.058 units=km normamp=250.0
new linecode.lc_58-3ph nphases=3 r1=0.291 x1=0.338 b1=3.22 r0=1.611999989 x0=0.439000011 b0=3.22 units=km normamp=180.0
new linecode.lc_59-3ph nphases=3 r1=0.197 x1=0.344999999 b1=3.34 r0=1.600000024 x0=0.344999999 b0=3.34 units=km normamp=225.0
new linecode.lc_60-3ph nphases=3 r1=0.197 x1=0.344999999 b1=3.34 r0=1.600000024 x0=0.344999999 b0=3.34 units=km normamp=320.0
new linecode.lc_61-3ph nphases=3 r1=0.197 x1=0.344999999 b1=3.34 r0=1.600000024 x0=0.344999999 b0=3.34 units=km normamp=355.0
new linecode.lc_62-3ph nphases=3 r1=0.197 x1=0.344999999 b1=3.34 r0=1.600000024 x0=0.344999999 b0=3.34 units=km normamp=445.0
new linecode.lc_63-3ph nphases=3 r1=0.149 x1=0.337000012 b1=3.43 r0=1.590999961 x0=0.296999991 b0=3.43 units=km normamp=260.0
new linecode.lc_64-3ph nphases=3 r1=0.149 x1=0.337000012 b1=3.43 r0=1.590999961 x0=0.296999991 b0=3.43 units=km normamp=375.0
new linecode.lc_65-3ph nphases=3 r1=0.149 x1=0.337000012 b1=3.43 r0=1.590999961 x0=0.296999991 b0=3.43 units=km normamp=420.0
new linecode.lc_66-3ph nphases=3 r1=0.149 x1=0.337000012 b1=3.43 r0=1.590999961 x0=0.296999991 b0=3.43 units=km normamp=555.0
new linecode.lc_67-3ph nphases=3 r1=0.15 x1=0.335999996 b1=3.432 r0=1.590000033 x0=0.298000008 b0=3.432 units=km normamp=210.0
new linecode.lc_68-3ph nphases=3 r1=0.098 x1=0.321999997 b1=3.584 r0=1.577000022 x0=0.246000007 b0=3.584 units=km normamp=245.0
new linecode.lc_69-3ph nphases=3 r1=0.075 x1=0.314000011 b1=3.688 r0=1.567999959 x0=0.223000005 b0=3.688 units=km normamp=300.0
new linecode.lc_70-3ph nphases=3 r1=1.444 x1=0.409000009 b1=3.7 r0=1.664000034 x0=1.593000054 b0=3.7 units=km normamp=75.0
new linecode.lc_71-3ph nphases=3 r1=1.444 x1=0.409000009 b1=3.7 r0=1.664000034 x0=1.593000054 b0=3.7 units=km normamp=75.0
new linecode.lc_72-3ph nphases=3 r1=1.444 x1=0.409000009 b1=3.7 r0=1.664000034 x0=1.593000054 b0=3.7 units=km normamp=102.0
new linecode.lc_73-3ph nphases=3 r1=1.444 x1=0.409000009 b1=3.7 r0=1.664000034 x0=1.593000054 b0=3.7 units=km normamp=112.0
new linecode.lc_74-3ph nphases=3 r1=1.444 x1=0.409000009 b1=3.7 r0=1.664000034 x0=1.593000054 b0=3.7 units=km normamp=145.0
new linecode.lc_75-3ph nphases=3 r1=1.064 x1=0.400000006 b1=3.737 r0=1.65199995 x0=1.213000059 b0=3.737 units=km normamp=75.0
new linecode.lc_76-3ph nphases=3 r1=1.064 x1=0.400000006 b1=3.737 r0=1.65199995 x0=1.213000059 b0=3.737 units=km normamp=75.0
new linecode.lc_77-3ph nphases=3 r1=0.732 x1=0.386000007 b1=2.994 r0=1.641000032 x0=0.879999995 b0=2.994 units=km normamp=107.0
new linecode.lc_78-3ph nphases=3 r1=0.485 x1=0.372999996 b1=3.104 r0=1.628000021 x0=0.633000016 b0=3.104 units=km normamp=136.0
new linecode.lc_79-3ph nphases=3 r1=0.29 x1=0.352999985 b1=3.262 r0=1.60800004 x0=0.437000006 b0=3.262 units=km normamp=180.0
new linecode.lc_80-3ph nphases=3 r1=0.29 x1=0.352999985 b1=3.262 r0=1.60800004 x0=0.437000006 b0=3.262 units=km normamp=255.0
new linecode.lc_81-3ph nphases=3 r1=0.29 x1=0.352999985 b1=3.262 r0=1.60800004 x0=0.437000006 b0=3.262 units=km normamp=280.0
new linecode.lc_82-3ph nphases=3 r1=0.29 x1=0.352999985 b1=3.262 r0=1.60800004 x0=0.437000006 b0=3.262 units=km normamp=305.0
new linecode.lc_83-3ph nphases=3 r1=0.29 x1=0.352999985 b1=3.262 r0=1.60800004 x0=0.437000006 b0=3.262 units=km normamp=350.0
new linecode.lc_84-3ph nphases=3 r1=2.187 x1=0.428000003 b1=3.04 r0=1.657999992 x0=2.335999966 b0=3.04 units=km normamp=66.0
new linecode.lc_85-3ph nphases=3 r1=2.187 x1=0.428000003 b1=3.04 r0=1.657999992 x0=2.335999966 b0=3.04 units=km normamp=90.0
new linecode.lc_86-3ph nphases=3 r1=2.187 x1=0.428000003 b1=3.04 r0=1.657999992 x0=2.335999966 b0=3.04 units=km normamp=99.0
new linecode.lc_87-3ph nphases=3 r1=2.187 x1=0.428000003 b1=3.04 r0=1.657999992 x0=2.335999966 b0=3.04 units=km normamp=122.0
new linecode.lc_88-3ph nphases=3 r1=2.24 x1=0.819999993 b1=0.0 r0=0.819999993 x0=2.24000001 b0=0.0 units=km normamp=66.0
new linecode.lc_89-3ph nphases=3 r1=1.117 x1=0.400999993 b1=3.04 r0=1.657999992 x0=1.225999951 b0=3.04 units=km normamp=84.0
new linecode.lc_90-3ph nphases=3 r1=1.117 x1=0.400999993 b1=3.04 r0=1.657999992 x0=1.225999951 b0=3.04 units=km normamp=114.0
new linecode.lc_91-3ph nphases=3 r1=1.117 x1=0.400999993 b1=3.04 r0=1.657999992 x0=1.225999951 b0=3.04 units=km normamp=126.0
new linecode.lc_92-3ph nphases=3 r1=1.117 x1=0.400999993 b1=3.04 r0=1.657999992 x0=1.225999951 b0=3.04 units=km normamp=155.0
new linecode.lc_93-3ph nphases=3 r1=0.694 x1=0.386000007 b1=3.26 r0=1.639000058 x0=0.842999995 b0=3.26 units=km normamp=109.0
new linecode.lc_94-3ph nphases=3 r1=0.694 x1=0.386000007 b1=3.26 r0=1.639000058 x0=0.842999995 b0=3.26 units=km normamp=150.0
new linecode.lc_95-3ph nphases=3 r1=0.694 x1=0.386000007 b1=3.26 r0=1.639000058 x0=0.842999995 b0=3.26 units=km normamp=165.0
new linecode.lc_96-3ph nphases=3 r1=0.694 x1=0.386000007 b1=3.26 r0=1.639000058 x0=0.842999995 b0=3.26 units=km normamp=205.0
new linecode.lc_97-3ph nphases=3 r1=0.44 x1=0.381000012 b1=3.26 r0=1.626999974 x0=0.588 b0=3.26 units=km normamp=135.0
new linecode.lc_98-3ph nphases=3 r1=0.44 x1=0.381000012 b1=3.26 r0=1.626999974 x0=0.588 b0=3.26 units=km normamp=190.0
new linecode.lc_99-3ph nphases=3 r1=0.44 x1=0.381000012 b1=3.26 r0=1.626999974 x0=0.588 b0=3.26 units=km normamp=210.0
new linecode.lc_100-3ph nphases=3 r1=0.44 x1=0.381000012 b1=3.26 r0=1.626999974 x0=0.588 b0=3.26 units=km normamp=230.0
new linecode.lc_101-3ph nphases=3 r1=0.44 x1=0.381000012 b1=3.26 r0=1.626999974 x0=0.588 b0=3.26 units=km normamp=260.0
new linecode.lc_102-3ph nphases=3 r1=0.232 x1=0.374000013 b1=3.412 r0=1.631999969 x0=0.467000008 b0=3.412 units=km normamp=420.0
new linecode.lc_103-3ph nphases=3 r1=0.232 x1=0.374000013 b1=3.412 r0=1.631999969 x0=0.467000008 b0=3.412 units=km normamp=180.0
new linecode.lc_104-3ph nphases=3 r1=0.232 x1=0.374000013 b1=3.412 r0=1.631999969 x0=0.467000008 b0=3.412 units=km normamp=220.0
new linecode.lc_105-3ph nphases=3 r1=0.232 x1=0.374000013 b1=3.412 r0=1.631999969 x0=0.467000008 b0=3.412 units=km normamp=250.0
new linecode.lc_106-3ph nphases=3 r1=0.232 x1=0.374000013 b1=3.412 r0=1.631999969 x0=0.467000008 b0=3.412 units=km normamp=285.0
new linecode.lc_107-3ph nphases=3 r1=0.232 x1=0.374000013 b1=3.412 r0=1.631999969 x0=0.467000008 b0=3.412 units=km normamp=310.0
new linecode.lc_108-3ph nphases=3 r1=0.232 x1=0.374000013 b1=3.412 r0=1.631999969 x0=0.467000008 b0=3.412 units=km normamp=335.0
new linecode.lc_109-3ph nphases=3 r1=0.232 x1=0.374000013 b1=3.412 r0=1.631999969 x0=0.467000008 b0=3.412 units=km normamp=360.0
new linecode.lc_110-3ph nphases=3 r1=0.232 x1=0.374000013 b1=3.412 r0=1.631999969 x0=0.467000008 b0=3.412 units=km normamp=400.0
new linecode.lc_111-3ph nphases=3 r1=0.173 x1=0.316000015 b1=3.604 r0=1.57099998 x0=0.319999993 b0=3.604 units=km normamp=250.0
new linecode.lc_112-3ph nphases=3 r1=0.173 x1=0.316000015 b1=3.604 r0=1.57099998 x0=0.319999993 b0=3.604 units=km normamp=360.0
new linecode.lc_113-3ph nphases=3 r1=0.173 x1=0.316000015 b1=3.604 r0=1.57099998 x0=0.319999993 b0=3.604 units=km normamp=405.0
new linecode.lc_114-3ph nphases=3 r1=0.173 x1=0.316000015 b1=3.604 r0=1.57099998 x0=0.319999993 b0=3.604 units=km normamp=510.0
new linecode.lc_115-3ph nphases=3 r1=0.14 x1=0.308999986 b1=3.688 r0=1.56400001 x0=0.287999988 b0=3.688 units=km normamp=360.0
new linecode.lc_116-3ph nphases=3 r1=0.14 x1=0.308999986 b1=3.688 r0=1.56400001 x0=0.287999988 b0=3.688 units=km normamp=560.0
new linecode.lc_117-3ph nphases=3 r1=0.14 x1=0.308999986 b1=3.688 r0=1.56400001 x0=0.287999988 b0=3.688 units=km normamp=630.0
new linecode.lc_118-3ph nphases=3 r1=0.14 x1=0.308999986 b1=3.688 r0=1.56400001 x0=0.287999988 b0=3.688 units=km normamp=800.0
new linecode.lc_119-3ph nphases=3 r1=1.7 x1=0.419999987 b1=3.04 r0=1.677000046 x0=1.850000024 b0=3.04 units=km normamp=70.0
new linecode.lc_120-3ph nphases=3 r1=1.7 x1=0.419999987 b1=3.04 r0=1.677000046 x0=1.850000024 b0=3.04 units=km normamp=85.0
new linecode.lc_121-3ph nphases=3 r1=1.7 x1=0.419999987 b1=3.04 r0=1.677000046 x0=1.850000024 b0=3.04 units=km normamp=96.0
new linecode.lc_122-3ph nphases=3 r1=1.7 x1=0.419999987 b1=3.04 r0=1.677000046 x0=1.850000024 b0=3.04 units=km normamp=106.0
new linecode.lc_123-3ph nphases=3 r1=1.7 x1=0.419999987 b1=3.04 r0=1.677000046 x0=1.850000024 b0=3.04 units=km normamp=115.0
new linecode.lc_124-3ph nphases=3 r1=1.7 x1=0.419999987 b1=3.04 r0=1.677000046 x0=1.850000024 b0=3.04 units=km normamp=123.0
new linecode.lc_125-3ph nphases=3 r1=1.7 x1=0.419999987 b1=3.04 r0=1.677000046 x0=1.850000024 b0=3.04 units=km normamp=130.0
new linecode.lc_126-3ph nphases=3 r1=1.064 x1=0.439999998 b1=3.04 r0=1.700000048 x0=1.25 b0=3.04 units=km normamp=89.0
new linecode.lc_127-3ph nphases=3 r1=1.064 x1=0.439999998 b1=3.04 r0=1.700000048 x0=1.25 b0=3.04 units=km normamp=121.0
new linecode.lc_128-3ph nphases=3 r1=1.064 x1=0.439999998 b1=3.04 r0=1.700000048 x0=1.25 b0=3.04 units=km normamp=135.0
new linecode.lc_129-3ph nphases=3 r1=1.064 x1=0.439999998 b1=3.04 r0=1.700000048 x0=1.25 b0=3.04 units=km normamp=165.0
new linecode.lc_130-3ph nphases=3 r1=0.78 x1=0.419999987 b1=3.26 r0=1.679999948 x0=0.930000007 b0=3.26 units=km normamp=109.0
new linecode.lc_131-3ph nphases=3 r1=0.78 x1=0.419999987 b1=3.26 r0=1.679999948 x0=0.930000007 b0=3.26 units=km normamp=131.0
new linecode.lc_132-3ph nphases=3 r1=0.78 x1=0.419999987 b1=3.26 r0=1.679999948 x0=0.930000007 b0=3.26 units=km normamp=150.0
new linecode.lc_133-3ph nphases=3 r1=0.78 x1=0.419999987 b1=3.26 r0=1.679999948 x0=0.930000007 b0=3.26 units=km normamp=165.0
new linecode.lc_134-3ph nphases=3 r1=0.78 x1=0.419999987 b1=3.26 r0=1.679999948 x0=0.930000007 b0=3.26 units=km normamp=180.0
new linecode.lc_135-3ph nphases=3 r1=0.78 x1=0.419999987 b1=3.26 r0=1.679999948 x0=0.930000007 b0=3.26 units=km normamp=195.0
new linecode.lc_136-3ph nphases=3 r1=0.78 x1=0.419999987 b1=3.26 r0=1.679999948 x0=0.930000007 b0=3.26 units=km normamp=205.0
new linecode.lc_137-3ph nphases=3 r1=0.51 x1=0.379999995 b1=3.26 r0=1.631000042 x0=0.660000026 b0=3.26 units=km normamp=138.0
new linecode.lc_138-3ph nphases=3 r1=0.51 x1=0.379999995 b1=3.26 r0=1.631000042 x0=0.660000026 b0=3.26 units=km normamp=195.0
new linecode.lc_139-3ph nphases=3 r1=0.51 x1=0.379999995 b1=3.26 r0=1.631000042 x0=0.660000026 b0=3.26 units=km normamp=215.0
new linecode.lc_140-3ph nphases=3 r1=0.51 x1=0.379999995 b1=3.26 r0=1.631000042 x0=0.660000026 b0=3.26 units=km normamp=270.0
new linecode.lc_141-3ph nphases=3 r1=0.32 x1=0.379999995 b1=3.42 r0=1.629999995 x0=0.469999999 b0=3.42 units=km normamp=180.0
new linecode.lc_142-3ph nphases=3 r1=0.32 x1=0.379999995 b1=3.42 r0=1.629999995 x0=0.469999999 b0=3.42 units=km normamp=255.0
new linecode.lc_143-3ph nphases=3 r1=0.32 x1=0.379999995 b1=3.42 r0=1.629999995 x0=0.469999999 b0=3.42 units=km normamp=285.0
new linecode.lc_144-3ph nphases=3 r1=0.32 x1=0.379999995 b1=3.42 r0=1.629999995 x0=0.469999999 b0=3.42 units=km normamp=310.0
new linecode.lc_145-3ph nphases=3 r1=0.32 x1=0.379999995 b1=3.42 r0=1.629999995 x0=0.469999999 b0=3.42 units=km normamp=355.0
new linecode.lc_146-3ph nphases=3 r1=0.32 x1=0.379999995 b1=3.42 r0=1.629999995 x0=0.469999999 b0=3.42 units=km normamp=360.0
new linecode.lc_147-3ph nphases=3 r1=0.194 x1=0.330000013 b1=3.498 r0=1.585000038 x0=0.342000008 b0=3.498 units=km normamp=230.0
new linecode.lc_148-3ph nphases=3 r1=0.194 x1=0.330000013 b1=3.498 r0=1.585000038 x0=0.342000008 b0=3.498 units=km normamp=335.0
new linecode.lc_149-3ph nphases=3 r1=0.194 x1=0.330000013 b1=3.498 r0=1.585000038 x0=0.342000008 b0=3.498 units=km normamp=375.0
new linecode.lc_150-3ph nphases=3 r1=0.194 x1=0.330000013 b1=3.498 r0=1.585000038 x0=0.342000008 b0=3.498 units=km normamp=475.0
new linecode.lc_151-3ph nphases=3 r1=0.143 x1=0.32100001 b1=3.61 r0=1.572999954 x0=0.291000009 b0=3.61 units=km normamp=270.0
new linecode.lc_152-3ph nphases=3 r1=0.143 x1=0.32100001 b1=3.61 r0=1.572999954 x0=0.291000009 b0=3.61 units=km normamp=400.0
new linecode.lc_153-3ph nphases=3 r1=0.143 x1=0.32100001 b1=3.61 r0=1.572999954 x0=0.291000009 b0=3.61 units=km normamp=450.0
new linecode.lc_154-3ph nphases=3 r1=0.143 x1=0.32100001 b1=3.61 r0=1.572999954 x0=0.291000009 b0=3.61 units=km normamp=570.0
new linecode.lc_155-3ph nphases=3 r1=0.116 x1=0.314000011 b1=3.688 r0=1.569000006 x0=0.263999999 b0=3.688 units=km normamp=305.0
new linecode.lc_156-3ph nphases=3 r1=0.116 x1=0.314000011 b1=3.688 r0=1.569000006 x0=0.263999999 b0=3.688 units=km normamp=455.0
new linecode.lc_157-3ph nphases=3 r1=0.116 x1=0.314000011 b1=3.688 r0=1.569000006 x0=0.263999999 b0=3.688 units=km normamp=515.0
new linecode.lc_158-3ph nphases=3 r1=0.116 x1=0.314000011 b1=3.688 r0=1.569000006 x0=0.263999999 b0=3.688 units=km normamp=650.0
new linecode.lc_159-3ph nphases=3 r1=0.096 x1=0.307999998 b1=3.77 r0=1.562000036 x0=0.243000001 b0=3.77 units=km normamp=890.0
new linecode.lc_160-3ph nphases=3 r1=0.096 x1=0.307999998 b1=3.77 r0=1.562000036 x0=0.243000001 b0=3.77 units=km normamp=335.0
new linecode.lc_161-3ph nphases=3 r1=0.096 x1=0.307999998 b1=3.77 r0=1.562000036 x0=0.243000001 b0=3.77 units=km normamp=510.0
new linecode.lc_162-3ph nphases=3 r1=0.096 x1=0.307999998 b1=3.77 r0=1.562000036 x0=0.243000001 b0=3.77 units=km normamp=575.0
new linecode.lc_163-3ph nphases=3 r1=0.096 x1=0.307999998 b1=3.77 r0=1.562000036 x0=0.243000001 b0=3.77 units=km normamp=730.0
new linecode.lc_164-3ph nphases=3 r1=0.88 x1=0.379999995 b1=3.04 r0=1.639999986 x0=1.029999971 b0=3.04 units=km normamp=99.0
new linecode.lc_165-3ph nphases=3 r1=0.88 x1=0.379999995 b1=3.04 r0=1.639999986 x0=1.029999971 b0=3.04 units=km normamp=136.0
new linecode.lc_166-3ph nphases=3 r1=0.88 x1=0.379999995 b1=3.04 r0=1.639999986 x0=1.029999971 b0=3.04 units=km normamp=150.0
new linecode.lc_167-3ph nphases=3 r1=0.88 x1=0.379999995 b1=3.04 r0=1.639999986 x0=1.029999971 b0=3.04 units=km normamp=185.0
new linecode.lc_168-3ph nphases=3 r1=0.611 x1=0.370000005 b1=3.14 r0=1.629999995 x0=0.765999973 b0=3.14 units=km normamp=121.0
new linecode.lc_169-3ph nphases=3 r1=0.611 x1=0.370000005 b1=3.14 r0=1.629999995 x0=0.765999973 b0=3.14 units=km normamp=170.0
new linecode.lc_170-3ph nphases=3 r1=0.611 x1=0.370000005 b1=3.14 r0=1.629999995 x0=0.765999973 b0=3.14 units=km normamp=185.0
new linecode.lc_171-3ph nphases=3 r1=0.611 x1=0.370000005 b1=3.14 r0=1.629999995 x0=0.765999973 b0=3.14 units=km normamp=230.0
new linecode.lc_172-3ph nphases=3 r1=0.391 x1=0.360000014 b1=3.26 r0=1.610000014 x0=0.540000022 b0=3.26 units=km normamp=155.0
new linecode.lc_173-3ph nphases=3 r1=0.391 x1=0.360000014 b1=3.26 r0=1.610000014 x0=0.540000022 b0=3.26 units=km normamp=220.0
new linecode.lc_174-3ph nphases=3 r1=0.391 x1=0.360000014 b1=3.26 r0=1.610000014 x0=0.540000022 b0=3.26 units=km normamp=245.0
new linecode.lc_175-3ph nphases=3 r1=0.391 x1=0.360000014 b1=3.26 r0=1.610000014 x0=0.540000022 b0=3.26 units=km normamp=305.0
new linecode.lc_176-3ph nphases=3 r1=0.245 x1=0.340000004 b1=3.42 r0=1.600000024 x0=0.400000006 b0=3.42 units=km normamp=205.0
new linecode.lc_177-3ph nphases=3 r1=0.245 x1=0.340000004 b1=3.42 r0=1.600000024 x0=0.400000006 b0=3.42 units=km normamp=290.0
new linecode.lc_178-3ph nphases=3 r1=0.245 x1=0.340000004 b1=3.42 r0=1.600000024 x0=0.400000006 b0=3.42 units=km normamp=325.0
new linecode.lc_179-3ph nphases=3 r1=0.245 x1=0.340000004 b1=3.42 r0=1.600000024 x0=0.400000006 b0=3.42 units=km normamp=355.0
new linecode.lc_180-3ph nphases=3 r1=0.245 x1=0.340000004 b1=3.42 r0=1.600000024 x0=0.400000006 b0=3.42 units=km normamp=385.0
new linecode.lc_181-3ph nphases=3 r1=0.245 x1=0.340000004 b1=3.42 r0=1.600000024 x0=0.400000006 b0=3.42 units=km normamp=410.0
new linecode.lc_182-3ph nphases=3 r1=0.194 x1=0.330000013 b1=3.5 r0=1.590000033 x0=0.340000004 b0=3.5 units=km normamp=570.0
new linecode.lc_183-3ph nphases=3 r1=0.194 x1=0.330000013 b1=3.5 r0=1.590000033 x0=0.340000004 b0=3.5 units=km normamp=300.0
new linecode.lc_184-3ph nphases=3 r1=0.194 x1=0.330000013 b1=3.5 r0=1.590000033 x0=0.340000004 b0=3.5 units=km normamp=290.0
new linecode.lc_185-3ph nphases=3 r1=0.194 x1=0.330000013 b1=3.5 r0=1.590000033 x0=0.340000004 b0=3.5 units=km normamp=335.0
new linecode.lc_186-3ph nphases=3 r1=0.194 x1=0.330000013 b1=3.5 r0=1.590000033 x0=0.340000004 b0=3.5 units=km normamp=375.0
new linecode.lc_187-3ph nphases=3 r1=0.194 x1=0.330000013 b1=3.5 r0=1.590000033 x0=0.340000004 b0=3.5 units=km normamp=445.0
new linecode.lc_188-3ph nphases=3 r1=0.194 x1=0.330000013 b1=3.5 r0=1.590000033 x0=0.340000004 b0=3.5 units=km normamp=475.0
new linecode.lc_189-3ph nphases=3 r1=0.145 x1=0.319999993 b1=3.6 r0=1.580000043 x0=0.289999992 b0=3.6 units=km normamp=680.0
new linecode.lc_190-3ph nphases=3 r1=0.145 x1=0.319999993 b1=3.6 r0=1.580000043 x0=0.289999992 b0=3.6 units=km normamp=270.0
new linecode.lc_191-3ph nphases=3 r1=0.145 x1=0.319999993 b1=3.6 r0=1.580000043 x0=0.289999992 b0=3.6 units=km normamp=395.0
new linecode.lc_192-3ph nphases=3 r1=0.145 x1=0.319999993 b1=3.6 r0=1.580000043 x0=0.289999992 b0=3.6 units=km normamp=445.0
new linecode.lc_193-3ph nphases=3 r1=0.145 x1=0.319999993 b1=3.6 r0=1.580000043 x0=0.289999992 b0=3.6 units=km normamp=565.0
new linecode.lc_194-3ph nphases=3 r1=0.091 x1=0.310000002 b1=3.8 r0=1.559999943 x0=0.239999995 b0=3.8 units=km normamp=915.0
new linecode.lc_195-3ph nphases=3 r1=0.091 x1=0.310000002 b1=3.8 r0=1.559999943 x0=0.239999995 b0=3.8 units=km normamp=345.0
new linecode.lc_196-3ph nphases=3 r1=0.091 x1=0.310000002 b1=3.8 r0=1.559999943 x0=0.239999995 b0=3.8 units=km normamp=525.0
new linecode.lc_197-3ph nphases=3 r1=0.091 x1=0.310000002 b1=3.8 r0=1.559999943 x0=0.239999995 b0=3.8 units=km normamp=590.0
new linecode.lc_198-3ph nphases=3 r1=0.091 x1=0.310000002 b1=3.8 r0=1.559999943 x0=0.239999995 b0=3.8 units=km normamp=750.0
new linecode.lc_199-3ph nphases=3 r1=0.076 x1=0.300000012 b1=3.88 r0=1.559999943 x0=0.219999999 b0=3.88 units=km normamp=1025.0
...
new line.mv_f0_l0 bus1=mv_f0_n585.1.2.3 bus2=mv_f0_n458.1.2.3 phases=3 length=0.015967 units=km linecode=lc_2-3ph enabled=true
new line.mv_f0_l1 bus1=mv_f0_n586.1.2.3 bus2=mv_f0_n585.1.2.3 phases=3 length=0.011087 units=km linecode=lc_2-3ph enabled=true
new line.mv_f0_l2 bus1=mv_f0_n458.1.2.3 bus2=mv_f0_n460.1.2.3 phases=3 length=0.049152 units=km linecode=lc_2-3ph enabled=true
new line.mv_f0_l3 bus1=mv_f0_n328.1.2.3 bus2=mv_f0_n306.1.2.3 phases=3 length=0.024522 units=km linecode=lc_183-3ph enabled=true
new line.mv_f0_l4 bus1=mv_f0_n390.1.2.3 bus2=mv_f0_n461.1.2.3 phases=3 length=0.038364 units=km linecode=lc_2-3ph enabled=true
new line.mv_f0_l5 bus1=mv_f0_n396.1.2.3 bus2=mv_f0_n264.1.2.3 phases=3 length=0.049147 units=km linecode=lc_2-3ph enabled=true
new line.mv_f0_l6 bus1=mv_f0_n309.1.2.3 bus2=mv_f0_n357.1.2.3 phases=3 length=0.051224 units=km linecode=lc_183-3ph enabled=true
new line.mv_f0_l7 bus1=mv_f0_n517.1.2.3 bus2=mv_f0_n582.1.2.3 phases=3 length=0.003734 units=km linecode=lc_2-3ph enabled=true
new line.mv_f0_l8 bus1=mv_f0_n127.1.2.3 bus2=mv_f0_n517.1.2.3 phases=3 length=0.040223 units=km linecode=lc_2-3ph enabled=true
new line.mv_f0_l9 bus1=mv_f0_n590.1.2.3 bus2=mv_f0_n589.1.2.3 phases=3 length=0.011326 units=km linecode=lc_2-3ph enabled=true
new line.mv_f0_l10 bus1=mv_f0_n306.1.2.3 bus2=mv_f0_n314.1.2.3 phases=3 length=0.033461 units=km linecode=lc_183-3ph enabled=true
new line.mv_f0_l11 bus1=mv_f0_n519.1.2.3 bus2=mv_f0_n474.1.2.3 phases=3 length=0.022385 units=km linecode=lc_2-3ph enabled=true
new line.mv_f0_l12 bus1=mv_f0_n582.1.2.3 bus2=mv_f0_n519.1.2.3 phases=3 length=0.002272 units=km linecode=lc_2-3ph enabled=true
new line.mv_f0_l13 bus1=mv_f0_n49.1.2.3 bus2=mv_f0_n516.1.2.3 phases=3 length=0.024834 units=km linecode=lc_2-3ph enabled=true
new line.mv_f0_l14 bus1=mv_f0_n393.1.2.3 bus2=mv_f0_n594.1.2.3 phases=3 length=0.042716 units=km linecode=lc_183-3ph enabled=true
new line.mv_f0_l15 bus1=mv_f0_n320.1.2.3 bus2=mv_f0_n309.1.2.3 phases=3 length=0.05022 units=km linecode=lc_183-3ph enabled=true
new line.mv_f0_l16 bus1=mv_f0_n408.1.2.3 bus2=mv_f0_n54.1.2.3 phases=3 length=0.028695 units=km linecode=lc_2-3ph enabled=true
new line.mv_f0_l17 bus1=mv_f0_n593.1.2.3 bus2=mv_f0_n394.1.2.3 phases=3 length=0.047606 units=km linecode=lc_183-3ph enabled=true
new line.mv_f0_l18 bus1=mv_f0_n314.1.2.3 bus2=mv_f0_n323.1.2.3 phases=3 length=0.053439 units=km linecode=lc_183-3ph enabled=true
new line.mv_f0_l19 bus1=mv_f0_n54.1.2.3 bus2=mv_f0_n57.1.2.3 phases=3 length=0.051054 units=km linecode=lc_2-3ph enabled=true
new line.mv_f0_l20 bus1=mv_f0_n394.1.2.3 bus2=mv_f0_n397.1.2.3 phases=3 length=0.042461 units=km linecode=lc_183-3ph enabled=true
new line.mv_f0_l21 bus1=mv_f0_n397.1.2.3 bus2=mv_f0_n393.1.2.3 phases=3 length=0.045189 units=km linecode=lc_183-3ph enabled=true
new line.mv_f0_l22 bus1=mv_f0_n434.1.2.3 bus2=mv_f0_n300.1.2.3 phases=3 length=0.104071 units=km linecode=lc_26-3ph enabled=true
new line.mv_f0_l23 bus1=mv_f0_n300.1.2.3 bus2=mv_f0_n236.1.2.3 phases=3 length=0.018614 units=km linecode=lc_26-3ph enabled=true
new line.mv_f0_l24 bus1=mv_f0_n330.1.2.3 bus2=mv_f0_n320.1.2.3 phases=3 length=0.052308 units=km linecode=lc_183-3ph enabled=true
new line.mv_f0_l25 bus1=mv_f0_n323.1.2.3 bus2=mv_f0_n330.1.2.3 phases=3 length=0.017719 units=km linecode=lc_183-3ph enabled=true
new line.mv_f0_l26 bus1=mv_f0_n387.1.2.3 bus2=mv_f0_n202.1.2.3 phases=3 length=0.000379 units=km linecode=lc_249-3ph enabled=true
new line.mv_f0_l27 bus1=mv_f0_n59.1.2.3 bus2=mv_f0_n49.1.2.3 phases=3 length=0.078713 units=km linecode=lc_2-3ph enabled=true
new line.mv_f0_l28 bus1=mv_f0_n57.1.2.3 bus2=mv_f0_n61.1.2.3 phases=3 length=0.027372 units=km linecode=lc_2-3ph enabled=true
new line.mv_f0_l29 bus1=mv_f0_n351.1.2.3 bus2=mv_f0_n333.1.2.3 phases=3 length=0.029521 units=km linecode=lc_183-3ph enabled=true
new line.mv_f0_l30 bus1=mv_f0_n333.1.2.3 bus2=mv_f0_n328.1.2.3 phases=3 length=0.031653 units=km linecode=lc_183-3ph enabled=true
new line.mv_f0_l31 bus1=mv_f0_n61.1.2.3 bus2=mv_f0_n64.1.2.3 phases=3 length=0.046745 units=km linecode=lc_2-3ph enabled=true
new line.mv_f0_l32 bus1=mv_f0_n363.1.2.3 bus2=mv_f0_n581.1.2.3 phases=3 length=0.031228 units=km linecode=lc_183-3ph enabled=true
new line.mv_f0_l33 bus1=mv_f0_n64.1.2.3 bus2=mv_f0_n67.1.2.3 phases=3 length=0.047414 units=km linecode=lc_2-3ph enabled=true
new line.mv_f0_l34 bus1=mv_f0_n67.1.2.3 bus2=mv_f0_n59.1.2.3 phases=3 length=0.062173 units=km linecode=lc_2-3ph enabled=true
new line.mv_f0_l35 bus1=mv_f0_n342.1.2.3 bus2=mv_f0_n364.1.2.3 phases=3 length=0.045475 units=km linecode=lc_183-3ph enabled=true
new line.mv_f0_l36 bus1=mv_f0_n328.1.2.3 bus2=mv_f0_n345.1.2.3 phases=3 length=0.049213 units=km linecode=lc_183-3ph enabled=true
new line.mv_f0_l37 bus1=mv_f0_n349.1.2.3 bus2=mv_f0_n342.1.2.3 phases=3 length=0.034465 units=km linecode=lc_183-3ph enabled=true
new line.mv_f0_l38 bus1=mv_f0_n587.1.2.3 bus2=mv_f0_n531.1.2.3 phases=3 length=0.004628 units=km linecode=lc_2-3ph enabled=true
new line.mv_f0_l39 bus1=mv_f0_n436.1.2.3 bus2=mv_f0_n197.1.2.3 phases=3 length=0.004763 units=km linecode=lc_2-3ph enabled=true
new line.mv_f0_l40 bus1=mv_f0_n531.1.2.3 bus2=mv_f0_n141.1.2.3 phases=3 length=0.044455 units=km linecode=lc_2-3ph enabled=true
new line.mv_f0_l41 bus1=mv_f0_n345.1.2.3 bus2=mv_f0_n352.1.2.3 phases=3 length=0.033915 units=km linecode=lc_183-3ph enabled=true
new line.mv_f0_l42 bus1=mv_f0_n352.1.2.3 bus2=mv_f0_n349.1.2.3 phases=3 length=0.02788 units=km linecode=lc_183-3ph enabled=true
new line.mv_f0_l43 bus1=mv_f0_n588.1.2.3 bus2=mv_f0_n375.1.2.3 phases=3 length=0.0019 units=km linecode=lc_2-3ph enabled=true
new line.mv_f0_l44 bus1=mv_f0_n164.1.2.3 bus2=mv_f0_n336.1.2.3 phases=3 length=0.046644 units=km linecode=lc_2-3ph enabled=true
new line.mv_f0_l45 bus1=mv_f0_n377.1.2.3 bus2=mv_f0_n361.1.2.3 phases=3 length=0.033692 units=km linecode=lc_183-3ph enabled=true
new line.mv_f0_l46 bus1=mv_f0_n361.1.2.3 bus2=mv_f0_n277.1.2.3 phases=3 length=0.03941 units=km linecode=lc_183-3ph enabled=true
new line.mv_f0_l47 bus1=mv_f0_n44.1.2.3 bus2=mv_f0_n171.1.2.3 phases=3 length=0.02737 units=km linecode=lc_2-3ph enabled=true
new line.mv_f0_l48 bus1=mv_f0_n377.1.2.3 bus2=mv_f0_n368.1.2.3 phases=3 length=0.031813 units=km linecode=lc_183-3ph enabled=true
new line.mv_f0_l49 bus1=mv_f0_n371.1.2.3 bus2=mv_f0_n381.1.2.3 phases=3 length=0.034661 units=km linecode=lc_183-3ph enabled=true
new line.mv_f0_l50 bus1=mv_f0_n368.1.2.3 bus2=mv_f0_n371.1.2.3 phases=3 length=0.032973 units=km linecode=lc_183-3ph enabled=true
new line.mv_f0_l51 bus1=mv_f0_n409.1.2.3 bus2=mv_f0_n87.1.2.3 phases=3 length=0.006918 units=km linecode=lc_2-3ph enabled=true
new line.mv_f0_l52 bus1=mv_f0_n86.1.2.3 bus2=mv_f0_n412.1.2.3 phases=3 length=0.0753 units=km linecode=lc_2-3ph enabled=true
new line.mv_f0_l53 bus1=mv_f0_n414.1.2.3 bus2=mv_f0_n409.1.2.3 phases=3 length=0.076096 units=km linecode=lc_2-3ph enabled=true
new line.mv_f0_l54 bus1=mv_f0_n412.1.2.3 bus2=mv_f0_n418.1.2.3 phases=3 length=0.038139 units=km linecode=lc_2-3ph enabled=true
new line.mv_f0_l55 bus1=mv_f0_n420.1.2.3 bus2=mv_f0_n414.1.2.3 phases=3 length=0.041074 units=km linecode=lc_2-3ph enabled=true
new line.mv_f0_l56 bus1=mv_f0_n425.1.2.3 bus2=mv_f0_n420.1.2.3 phases=3 length=0.046328 units=km linecode=lc_2-3ph enabled=true
new line.mv_f0_l57 bus1=mv_f0_n423.1.2.3 bus2=mv_f0_n427.1.2.3 phases=3 length=0.033605 units=km linecode=lc_2-3ph enabled=true
new line.mv_f0_l58 bus1=mv_f0_n427.1.2.3 bus2=mv_f0_n430.1.2.3 phases=3 length=0.033257 units=km linecode=lc_2-3ph enabled=true
new line.mv_f0_l59 bus1=mv_f0_n432.1.2.3 bus2=mv_f0_n425.1.2.3 phases=3 length=0.041455 units=km linecode=lc_2-3ph enabled=true
new line.mv_f0_l60 bus1=mv_f0_n430.1.2.3 bus2=mv_f0_n435.1.2.3 phases=3 length=0.057838 units=km linecode=lc_2-3ph enabled=true
new line.mv_f0_l61 bus1=mv_f0_n518.1.2.3 bus2=mv_f0_n114.1.2.3 phases=3 length=0.038207 units=km linecode=lc_2-3ph enabled=true
new line.mv_f0_l62 bus1=mv_f0_n435.1.2.3 bus2=mv_f0_n432.1.2.3 phases=3 length=0.027189 units=km linecode=lc_2-3ph enabled=true
new line.mv_f0_l63 bus1=mv_f0_n140.1.2.3 bus2=mv_f0_n293.1.2.3 phases=3 length=0.015936 units=km linecode=lc_2-3ph enabled=true
new line.mv_f0_l64 bus1=mv_f0_n120.1.2.3 bus2=mv_f0_n355.1.2.3 phases=3 length=0.04522 units=km linecode=lc_2-3ph enabled=true
new line.mv_f0_l65 bus1=mv_f0_n98.1.2.3 bus2=mv_f0_n438.1.2.3 phases=3 length=0.007843 units=km linecode=lc_2-3ph enabled=true
new line.mv_f0_l66 bus1=mv_f0_n145.1.2.3 bus2=mv_f0_n140.1.2.3 phases=3 length=0.014876 units=km linecode=lc_2-3ph enabled=true
new line.mv_f0_l67 bus1=mv_f0_n438.1.2.3 bus2=mv_f0_n441.1.2.3 phases=3 length=0.039199 units=km linecode=lc_2-3ph enabled=true
new line.mv_f0_l68 bus1=mv_f0_n114.1.2.3 bus2=mv_f0_n126.1.2.3 phases=3 length=0.020897 units=km linecode=lc_2-3ph enabled=true
new line.mv_f0_l69 bus1=mv_f0_n31.1.2.3 bus2=mv_f0_n147.1.2.3 phases=3 length=0.046734 units=km linecode=lc_2-3ph enabled=true
new line.mv_f0_l70 bus1=mv_f0_n442.1.2.3 bus2=mv_f0_n44.1.2.3 phases=3 length=0.072255 units=km linecode=lc_2-3ph enabled=true
new line.mv_f0_l71 bus1=mv_f0_n151.1.2.3 bus2=mv_f0_n145.1.2.3 phases=3 length=0.02584 units=km linecode=lc_2-3ph enabled=true
new line.mv_f0_l72 bus1=mv_f0_n231.1.2.3 bus2=mv_f0_n110.1.2.3 phases=3 length=0.033328 units=km linecode=lc_2-3ph enabled=true
new line.mv_f0_l73 bus1=mv_f0_n441.1.2.3 bus2=mv_f0_n444.1.2.3 phases=3 length=0.056841 units=km linecode=lc_2-3ph enabled=true
new line.mv_f0_l74 bus1=mv_f0_n211.1.2.3 bus2=mv_f0_n231.1.2.3 phases=3 length=0.005764 units=km linecode=lc_2-3ph enabled=true
new line.mv_f0_l75 bus1=mv_f0_n154.1.2.3 bus2=mv_f0_n151.1.2.3 phases=3 length=0.040593 units=km linecode=lc_2-3ph enabled=true
new line.mv_f0_l76 bus1=mv_f0_n234.1.2.3 bus2=mv_f0_n211.1.2.3 phases=3 length=0.001569 units=km linecode=lc_2-3ph enabled=true
new line.mv_f0_l77 bus1=mv_f0_n575.1.2.3 bus2=mv_f0_n234.1.2.3 phases=3 length=0.056262 units=km linecode=lc_2-3ph enabled=true
new line.mv_f0_l78 bus1=mv_f0_n447.1.2.3 bus2=mv_f0_n442.1.2.3 phases=3 length=0.044436 units=km linecode=lc_2-3ph enabled=true
new line.mv_f0_l79 bus1=mv_f0_n147.1.2.3 bus2=mv_f0_n157.1.2.3 phases=3 length=0.055675 units=km linecode=lc_2-3ph enabled=true
new line.mv_f0_l80 bus1=mv_f0_n444.1.2.3 bus2=mv_f0_n448.1.2.3 phases=3 length=0.039996 units=km linecode=lc_2-3ph enabled=true
new line.mv_f0_l81 bus1=mv_f0_n157.1.2.3 bus2=mv_f0_n159.1.2.3 phases=3 length=0.02476 units=km linecode=lc_2-3ph enabled=true
new line.mv_f0_l82 bus1=mv_f0_n449.1.2.3 bus2=mv_f0_n447.1.2.3 phases=3 length=0.039503 units=km linecode=lc_2-3ph enabled=true
new line.mv_f0_l83 bus1=mv_f0_n159.1.2.3 bus2=mv_f0_n161.1.2.3 phases=3 length=0.033346 units=km linecode=lc_2-3ph enabled=true
new line.mv_f0_l84 bus1=mv_f0_n161.1.2.3 bus2=mv_f0_n154.1.2.3 phases=3 length=0.061396 units=km linecode=lc_2-3ph enabled=true
new line.mv_f0_l85 bus1=mv_f0_n448.1.2.3 bus2=mv_f0_n451.1.2.3 phases=3 length=0.043017 units=km linecode=lc_2-3ph enabled=true
new line.mv_f0_l86 bus1=mv_f0_n451.1.2.3 bus2=mv_f0_n449.1.2.3 phases=3 length=0.057998 units=km linecode=lc_2-3ph enabled=true
new line.mv_f0_l87 bus1=mv_f0_n169.1.2.3 bus2=mv_f0_n31.1.2.3 phases=3 length=0.067121 units=km linecode=lc_2-3ph enabled=true
new line.mv_f0_l88 bus1=mv_f0_n403.1.2.3 bus2=mv_f0_n169.1.2.3 phases=3 length=0.094006 units=km linecode=lc_2-3ph enabled=true
new line.mv_f0_l89 bus1=mv_f0_n522.1.2.3 bus2=mv_f0_n134.1.2.3 phases=3 length=0.006423 units=km linecode=lc_2-3ph enabled=true
new line.mv_f0_l90 bus1=mv_f0_n139.1.2.3 bus2=mv_f0_n179.1.2.3 phases=3 length=0.021228 units=km linecode=lc_2-3ph enabled=true
new line.mv_f0_l91 bus1=mv_f0_n173.1.2.3 bus2=mv_f0_n400.1.2.3 phases=3 length=0.051304 units=km linecode=lc_2-3ph enabled=true
new line.mv_f0_l92 bus1=mv_f0_n287.1.2.3 bus2=mv_f0_n173.1.2.3 phases=3 length=0.019454 units=km linecode=lc_2-3ph enabled=true
new line.mv_f0_l93 bus1=mv_f0_n179.1.2.3 bus2=mv_f0_n182.1.2.3 phases=3 length=0.036767 units=km linecode=lc_2-3ph enabled=true
new line.mv_f0_l94 bus1=mv_f0_n445.1.2.3 bus2=mv_f0_n362.1.2.3 phases=3 length=0.050324 units=km linecode=lc_42-3ph enabled=true
new line.mv_f0_l95 bus1=mv_f0_n545.1.2.3 bus2=mv_f0_n43.1.2.3 phases=3 length=0.007908 units=km linecode=lc_29-3ph enabled=true
new line.mv_f0_l96 bus1=mv_f0_n353.1.2.3 bus2=mv_f0_n445.1.2.3 phases=3 length=0.000632 units=km linecode=lc_42-3ph enabled=true
new line.mv_f0_l97 bus1=mv_f0_n298.1.2.3 bus2=mv_f0_n506.1.2.3 phases=3 length=0.043067 units=km linecode=lc_2-3ph enabled=true
new line.mv_f0_l98 bus1=mv_f0_n508.1.2.3 bus2=mv_f0_n298.1.2.3 phases=3 length=0.010666 units=km linecode=lc_2-3ph enabled=true
new line.mv_f0_l99 bus1=mv_f0_n182.1.2.3 bus2=mv_f0_n183.1.2.3 phases=3 length=0.039127 units=km linecode=lc_2-3ph enabled=true
new line.mv_f0_l100 bus1=mv_f0_n184.1.2.3 bus2=mv_f0_n279.1.2.3 phases=3 length=0.116236 units=km linecode=lc_2-3ph enabled=true
new line.mv_f0_l101 bus1=mv_f0_n51.1.2.3 bus2=mv_f0_n385.1.2.3 phases=3 length=0.052791 units=km linecode=lc_29-3ph enabled=true
new line.mv_f0_l102 bus1=mv_f0_n183.1.2.3 bus2=mv_f0_n187.1.2.3 phases=3 length=0.053107 units=km linecode=lc_2-3ph enabled=true
new line.mv_f0_l103 bus1=mv_f0_n315.1.2.3 bus2=mv_f0_n310.1.2.3 phases=3 length=0.029148 units=km linecode=lc_183-3ph enabled=true
new line.mv_f0_l104 bus1=mv_f0_n191.1.2.3 bus2=mv_f0_n184.1.2.3 phases=3 length=0.038684 units=km linecode=lc_2-3ph enabled=true
new line.mv_f0_l105 bus1=mv_f0_n196.1.2.3 bus2=mv_f0_n55.1.2.3 phases=3 length=0.017073 units=km linecode=lc_2-3ph enabled=true
new line.mv_f0_l106 bus1=mv_f0_n47.1.2.3 bus2=mv_f0_n382.1.2.3 phases=3 length=0.062896 units=km linecode=lc_29-3ph enabled=true
new line.mv_f0_l107 bus1=mv_f0_n382.1.2.3 bus2=mv_f0_n51.1.2.3 phases=3 length=0.000252 units=km linecode=lc_29-3ph enabled=true
new line.mv_f0_l108 bus1=mv_f0_n494.1.2.3 bus2=mv_f0_n322.1.2.3 phases=3 length=0.031336 units=km linecode=lc_183-3ph enabled=true
new line.mv_f0_l109 bus1=mv_f0_n58.1.2.3 bus2=mv_f0_n545.1.2.3 phases=3 length=0.067385 units=km linecode=lc_2-3ph enabled=true
new line.mv_f0_l110 bus1=mv_f0_n187.1.2.3 bus2=mv_f0_n192.1.2.3 phases=3 length=0.035403 units=km linecode=lc_2-3ph enabled=true
new line.mv_f0_l111 bus1=mv_f0_n324.1.2.3 bus2=mv_f0_n315.1.2.3 phases=3 length=0.030365 units=km linecode=lc_183-3ph enabled=true
new line.mv_f0_l112 bus1=mv_f0_n193.1.2.3 bus2=mv_f0_n191.1.2.3 phases=3 length=0.033835 units=km linecode=lc_2-3ph enabled=true
new line.mv_f0_l113 bus1=mv_f0_n192.1.2.3 bus2=mv_f0_n193.1.2.3 phases=3 length=0.064535 units=km linecode=lc_2-3ph enabled=true
new line.mv_f0_l114 bus1=mv_f0_n55.1.2.3 bus2=mv_f0_n60.1.2.3 phases=3 length=0.056576 units=km linecode=lc_2-3ph enabled=true
new line.mv_f0_l115 bus1=mv_f0_n332.1.2.3 bus2=mv_f0_n324.1.2.3 phases=3 length=0.031197 units=km linecode=lc_183-3ph enabled=true
new line.mv_f0_l116 bus1=mv_f0_n322.1.2.3 bus2=mv_f0_n332.1.2.3 phases=3 length=0.032312 units=km linecode=lc_183-3ph enabled=true
new line.mv_f0_l117 bus1=mv_f0_n60.1.2.3 bus2=mv_f0_n63.1.2.3 phases=3 length=0.043389 units=km linecode=lc_2-3ph enabled=true
new line.mv_f0_l118 bus1=mv_f0_n63.1.2.3 bus2=mv_f0_n66.1.2.3 phases=3 length=0.0313 units=km linecode=lc_2-3ph enabled=true
new line.mv_f0_l119 bus1=mv_f0_n547.1.2.3 bus2=mv_f0_n574.1.2.3 phases=3 length=0.000379 units=km linecode=lc_2-3ph enabled=true
new line.mv_f0_l120 bus1=mv_f0_n577.1.2.3 bus2=mv_f0_n547.1.2.3 phases=3 length=0.145797 units=km linecode=lc_2-3ph enabled=true
new line.mv_f0_l121 bus1=mv_f0_n70.1.2.3 bus2=mv_f0_n58.1.2.3 phases=3 length=0.083148 units=km linecode=lc_2-3ph enabled=true
new line.mv_f0_l122 bus1=mv_f0_n457.1.2.3 bus2=mv_f0_n38.1.2.3 phases=3 length=0.039502 units=km linecode=lc_183-3ph enabled=true
new line.mv_f0_l123 bus1=mv_f0_n507.1.2.3 bus2=mv_f0_n68.1.2.3 phases=3 length=0.081167 units=km linecode=lc_2-3ph enabled=true
new line.mv_f0_l124 bus1=mv_f0_n68.1.2.3 bus2=mv_f0_n497.1.2.3 phases=3 length=0.000377 units=km linecode=lc_2-3ph enabled=true
new line.mv_f0_l125 bus1=mv_f0_n40.1.2.3 bus2=mv_f0_n268.1.2.3 phases=3 length=0.042624 units=km linecode=lc_183-3ph enabled=true
new line.mv_f0_l126 bus1=mv_f0_n66.1.2.3 bus2=mv_f0_n71.1.2.3 phases=3 length=0.075011 units=km linecode=lc_2-3ph enabled=true
new line.mv_f0_l127 bus1=mv_f0_n499.1.2.3 bus2=mv_f0_n337.1.2.3 phases=3 length=0.026844 units=km linecode=lc_183-3ph enabled=true
new line.mv_f0_l128 bus1=mv_f0_n42.1.2.3 bus2=mv_f0_n40.1.2.3 phases=3 length=0.032484 units=km linecode=lc_183-3ph enabled=true
new line.mv_f0_l129 bus1=mv_f0_n75.1.2.3 bus2=mv_f0_n70.1.2.3 phases=3 length=0.100053 units=km linecode=lc_2-3ph enabled=true
new line.mv_f0_l130 bus1=mv_f0_n38.1.2.3 bus2=mv_f0_n42.1.2.3 phases=3 length=0.030918 units=km linecode=lc_183-3ph enabled=true
new line.mv_f0_l131 bus1=mv_f0_n473.1.2.3 bus2=mv_f0_n487.1.2.3 phases=3 length=0.04878 units=km linecode=lc_183-3ph enabled=true
new line.mv_f0_l132 bus1=mv_f0_n340.1.2.3 bus2=mv_f0_n335.1.2.3 phases=3 length=0.028375 units=km linecode=lc_183-3ph enabled=true
new line.mv_f0_l133 bus1=mv_f0_n77.1.2.3 bus2=mv_f0_n75.1.2.3 phases=3 length=0.042799 units=km linecode=lc_2-3ph enabled=true
new line.mv_f0_l134 bus1=mv_f0_n475.1.2.3 bus2=mv_f0_n477.1.2.3 phases=3 length=0.019246 units=km linecode=lc_183-3ph enabled=true
new line.mv_f0_l135 bus1=mv_f0_n337.1.2.3 bus2=mv_f0_n343.1.2.3 phases=3 length=0.027218 units=km linecode=lc_183-3ph enabled=true
new line.mv_f0_l136 bus1=mv_f0_n346.1.2.3 bus2=mv_f0_n340.1.2.3 phases=3 length=0.034653 units=km linecode=lc_183-3ph enabled=true
new line.mv_f0_l137 bus1=mv_f0_n261.1.2.3 bus2=mv_f0_n257.1.2.3 phases=3 length=0.018507 units=km linecode=lc_2-3ph enabled=true
new line.mv_f0_l138 bus1=mv_f0_n343.1.2.3 bus2=mv_f0_n346.1.2.3 phases=3 length=0.030479 units=km linecode=lc_183-3ph enabled=true
new line.mv_f0_l139 bus1=mv_f0_n520.1.2.3 bus2=mv_f0_n535.1.2.3 phases=3 length=0.007844 units=km linecode=lc_2-3ph enabled=true
new line.mv_f0_l140 bus1=mv_f0_n341.1.2.3 bus2=mv_f0_n313.1.2.3 phases=3 length=0.040151 units=km linecode=lc_2-3ph enabled=true
new line.mv_f0_l141 bus1=mv_f0_n84.1.2.3 bus2=mv_f0_n111.1.2.3 phases=3 length=0.000377 units=km linecode=lc_2-3ph enabled=true
new line.mv_f0_l142 bus1=mv_f0_n113.1.2.3 bus2=mv_f0_n84.1.2.3 phases=3 length=0.034845 units=km linecode=lc_2-3ph enabled=true
new line.mv_f0_l143 bus1=mv_f0_n321.1.2.3 bus2=mv_f0_n344.1.2.3 phases=3 length=0.046018 units=km linecode=lc_2-3ph enabled=true
new line.mv_f0_l144 bus1=mv_f0_n413.1.2.3 bus2=mv_f0_n104.1.2.3 phases=3 length=0.003147 units=km linecode=lc_2-3ph enabled=true
new line.mv_f0_l145 bus1=mv_f0_n1.1.2.3 bus2=mv_f0_n415.1.2.3 phases=3 length=0.029602 units=km linecode=lc_2-3ph enabled=true
new line.mv_f0_l146 bus1=mv_f0_n350.1.2.3 bus2=mv_f0_n360.1.2.3 phases=3 length=0.078903 units=km linecode=lc_2-3ph enabled=true
new line.mv_f0_l147 bus1=mv_f0_n554.1.2.3 bus2=mv_f0_n470.1.2.3 phases=3 length=0.019003 units=km linecode=lc_2-3ph enabled=true
new line.mv_f0_l148 bus1=mv_f0_n174.1.2.3 bus2=mv_f0_n353.1.2.3 phases=3 length=0.033241 units=km linecode=lc_42-3ph enabled=true
new line.mv_f0_l149 bus1=mv_f0_n555.1.2.3 bus2=mv_f0_n554.1.2.3 phases=3 length=0.088121 units=km linecode=lc_2-3ph enabled=true
new line.mv_f0_l150 bus1=mv_f0_n358.1.2.3 bus2=mv_f0_n540.1.2.3 phases=3 length=0.084122 units=km linecode=lc_42-3ph enabled=true
new line.mv_f0_l151 bus1=mv_f0_n170.1.2.3 bus2=mv_f0_n555.1.2.3 phases=3 length=0.080339 units=km linecode=lc_2-3ph enabled=true
new line.mv_f0_l152 bus1=mv_f0_n104.1.2.3 bus2=mv_f0_n426.1.2.3 phases=3 length=0.003188 units=km linecode=lc_2-3ph enabled=true
new line.mv_f0_l153 bus1=mv_f0_n558.1.2.3 bus2=mv_f0_n303.1.2.3 phases=3 length=0.014085 units=km linecode=lc_2-3ph enabled=true
new line.mv_f0_l154 bus1=mv_f0_n428.1.2.3 bus2=mv_f0_n118.1.2.3 phases=3 length=0.040854 units=km linecode=lc_2-3ph enabled=true
new line.mv_f0_l155 bus1=mv_f0_n118.1.2.3 bus2=mv_f0_n560.1.2.3 phases=3 length=0.049898 units=km linecode=lc_2-3ph enabled=true
new line.mv_f0_l156 bus1=mv_f0_n560.1.2.3 bus2=mv_f0_n558.1.2.3 phases=3 length=0.118003 units=km linecode=lc_2-3ph enabled=true
new line.mv_f0_l157 bus1=mv_f0_n365.1.2.3 bus2=mv_f0_n358.1.2.3 phases=3 length=0.035002 units=km linecode=lc_42-3ph enabled=true
new line.mv_f0_l158 bus1=mv_f0_n367.1.2.3 bus2=mv_f0_n365.1.2.3 phases=3 length=0.035006 units=km linecode=lc_42-3ph enabled=true
new line.mv_f0_l159 bus1=mv_f0_n128.1.2.3 bus2=mv_f0_n131.1.2.3 phases=3 length=0.000998 units=km linecode=lc_249-3ph enabled=true
new line.mv_f0_l160 bus1=mv_f0_n369.1.2.3 bus2=mv_f0_n367.1.2.3 phases=3 length=0.066224 units=km linecode=lc_42-3ph enabled=true
new line.mv_f0_l161 bus1=mv_f0_n362.1.2.3 bus2=mv_f0_n369.1.2.3 phases=3 length=0.104592 units=km linecode=lc_42-3ph enabled=true
new line.mv_f0_l162 bus1=mv_f0_n443.1.2.3 bus2=mv_f0_n65.1.2.3 phases=3 length=0.042987 units=km linecode=lc_183-3ph enabled=true
new line.mv_f0_l163 bus1=mv_f0_n325.1.2.3 bus2=mv_f0_n563.1.2.3 phases=3 length=0.019906 units=km linecode=lc_2-3ph enabled=true
new line.mv_f0_l164 bus1=mv_f0_n69.1.2.3 bus2=mv_f0_n377.1.2.3 phases=3 length=0.04306 units=km linecode=lc_183-3ph enabled=true
new line.mv_f0_l165 bus1=mv_f0_n141.1.2.3 bus2=mv_f0_n135.1.2.3 phases=3 length=0.008943 units=km linecode=lc_2-3ph enabled=true
new line.mv_f0_l166 bus1=mv_f0_n72.1.2.3 bus2=mv_f0_n69.1.2.3 phases=3 length=0.036358 units=km linecode=lc_183-3ph enabled=true
new line.mv_f0_l167 bus1=mv_f0_n65.1.2.3 bus2=mv_f0_n74.1.2.3 phases=3 length=0.044366 units=km linecode=lc_183-3ph enabled=true
new line.mv_f0_l168 bus1=mv_f0_n485.1.2.3 bus2=mv_f0_n133.1.2.3 phases=3 length=0.025794 units=km linecode=lc_2-3ph enabled=true
new line.mv_f0_l169 bus1=mv_f0_n78.1.2.3 bus2=mv_f0_n72.1.2.3 phases=3 length=0.037343 units=km linecode=lc_183-3ph enabled=true
new line.mv_f0_l170 bus1=mv_f0_n11.1.2.3 bus2=mv_f0_n122.1.2.3 phases=3 length=0.027767 units=km linecode=lc_2-3ph enabled=true
new line.mv_f0_l171 bus1=mv_f0_n122.1.2.3 bus2=mv_f0_n10.1.2.3 phases=3 length=0.001 units=km linecode=lc_2-3ph enabled=true
new line.mv_f0_l172 bus1=mv_f0_n133.1.2.3 bus2=mv_f0_n137.1.2.3 phases=3 length=0.065224 units=km linecode=lc_2-3ph enabled=true
new line.mv_f0_l173 bus1=mv_f0_n81.1.2.3 bus2=mv_f0_n78.1.2.3 phases=3 length=0.040387 units=km linecode=lc_183-3ph enabled=true
new line.mv_f0_l174 bus1=mv_f0_n74.1.2.3 bus2=mv_f0_n81.1.2.3 phases=3 length=0.053046 units=km linecode=lc_183-3ph enabled=true
new line.mv_f0_l175 bus1=mv_f0_n4.1.2.3 bus2=mv_f0_n156.1.2.3 phases=3 length=0.105331 units=km linecode=lc_2-3ph enabled=true
new line.mv_f0_l176 bus1=mv_f0_n156.1.2.3 bus2=mv_f0_n34.1.2.3 phases=3 length=0.010966 units=km linecode=lc_2-3ph enabled=true
new line.mv_f0_l177 bus1=mv_f0_n567.1.2.3 bus2=mv_f0_n532.1.2.3 phases=3 length=0.020327 units=km linecode=lc_2-3ph enabled=true
new line.mv_f0_l178 bus1=mv_f0_n374.1.2.3 bus2=mv_f0_n567.1.2.3 phases=3 length=0.039808 units=km linecode=lc_2-3ph enabled=true
new line.mv_f0_l179 bus1=mv_f0_n43.1.2.3 bus2=mv_f0_n410.1.2.3 phases=3 length=0.000252 units=km linecode=lc_29-3ph enabled=true
new line.mv_f0_l180 bus1=mv_f0_n410.1.2.3 bus2=mv_f0_n47.1.2.3 phases=3 length=0.030003 units=km linecode=lc_29-3ph enabled=true
new line.mv_f0_l181 bus1=mv_f0_n570.1.2.3 bus2=mv_f0_n496.1.2.3 phases=3 length=0.154281 units=km linecode=lc_2-3ph enabled=true
new line.mv_f0_l182 bus1=mv_f0_n29.1.2.3 bus2=mv_f0_n575.1.2.3 phases=3 length=0.070723 units=km linecode=lc_2-3ph enabled=true
new line.mv_f0_l183 bus1=mv_f0_n498.1.2.3 bus2=mv_f0_n570.1.2.3 phases=3 length=0.046185 units=km linecode=lc_2-3ph enabled=true
new line.mv_f0_l184 bus1=mv_f0_n372.1.2.3 bus2=mv_f0_n1.1.2.3 phases=3 length=0.187032 units=km linecode=lc_2-3ph enabled=true
new line.mv_f0_l185 bus1=mv_f0_n523.1.2.3 bus2=mv_f0_n5.1.2.3 phases=3 length=0.013764 units=km linecode=lc_2-3ph enabled=true
new line.mv_f0_l186 bus1=mv_f0_n415.1.2.3 bus2=mv_f0_n556.1.2.3 phases=3 length=0.000504 units=km linecode=lc_2-3ph enabled=true
new line.mv_f0_l187 bus1=mv_f0_n199.1.2.3 bus2=mv_f0_n200.1.2.3 phases=3 length=0.013764 units=km linecode=lc_2-3ph enabled=true
new line.mv_f0_l188 bus1=mv_f0_n556.1.2.3 bus2=mv_f0_n421.1.2.3 phases=3 length=0.075886 units=km linecode=lc_2-3ph enabled=true
new line.mv_f0_l189 bus1=mv_f0_n200.1.2.3 bus2=mv_f0_n524.1.2.3 phases=3 length=0.018002 units=km linecode=lc_2-3ph enabled=true
new line.mv_f0_l190 bus1=mv_f0_n559.1.2.3 bus2=mv_f0_n428.1.2.3 phases=3 length=0.000504 units=km linecode=lc_2-3ph enabled=true
new line.mv_f0_l191 bus1=mv_f0_n32.1.2.3 bus2=mv_f0_n580.1.2.3 phases=3 length=0.024266 units=km linecode=lc_2-3ph enabled=true
new line.mv_f0_l192 bus1=mv_f0_n433.1.2.3 bus2=mv_f0_n559.1.2.3 phases=3 length=0.072039 units=km linecode=lc_2-3ph enabled=true
new line.mv_f0_l193 bus1=mv_f0_n580.1.2.3 bus2=mv_f0_n221.1.2.3 phases=3 length=0.034223 units=km linecode=lc_2-3ph enabled=true
new line.mv_f0_l194 bus1=mv_f0_n203.1.2.3 bus2=mv_f0_n207.1.2.3 phases=3 length=0.016551 units=km linecode=lc_2-3ph enabled=true
new line.mv_f0_l195 bus1=mv_f0_n207.1.2.3 bus2=mv_f0_n530.1.2.3 phases=3 length=0.016612 units=km linecode=lc_2-3ph enabled=true
new line.mv_f0_l196 bus1=mv_f0_n530.1.2.3 bus2=mv_f0_n213.1.2.3 phases=3 length=0.011655 units=km linecode=lc_2-3ph enabled=true
new line.mv_f0_l197 bus1=mv_f0_n175.1.2.3 bus2=mv_f0_n391.1.2.3 phases=3 length=0.002109 units=km linecode=lc_2-3ph enabled=true
new line.mv_f0_l198 bus1=mv_f0_n153.1.2.3 bus2=mv_f0_n175.1.2.3 phases=3 length=0.049301 units=km linecode=lc_2-3ph enabled=true
new line.mv_f0_l199 bus1=mv_f0_n213.1.2.3 bus2=mv_f0_n216.1.2.3 phases=3 length=0.020721 units=km linecode=lc_2-3ph enabled=true
...
new transformer.mv_f0_lv_OAKGROVE_OXENFORD phases=3 windings=2 buses=[mv_f0_n8 mv_f0_lv0_busbar] conns=[delta wye] kVs=[22 0.433] kVAs=[300 300] xhl=3.78 %noloadloss=0.13125 %loadloss=1.46875 wdg=1 numtaps=4 tap=1 maxtap=1.137 mintap=1.028
new transformer.mv_f0_lv_CHATSWOOD_FLEET phases=3 windings=2 buses=[mv_f0_n185 mv_f0_lv1_busbar] conns=[delta wye] kVs=[22 0.433] kVAs=[300 300] xhl=3.78 %noloadloss=0.13125 %loadloss=1.46875 wdg=1 numtaps=4 tap=1 maxtap=1.137 mintap=1.028
new transformer.mv_f0_lv_GREENVIEW_SNOWDONIA phases=3 windings=2 buses=[mv_f0_n385 mv_f0_lv2_busbar] conns=[delta wye] kVs=[22 0.433] kVAs=[500 500] xhl=3.85 %noloadloss=0.12 %loadloss=1.3 wdg=1 numtaps=4 tap=1 maxtap=1.137 mintap=1.028
new transformer.mv_f0_lv_KERSHAW_ORMOND phases=3 windings=2 buses=[mv_f0_n515 mv_f0_lv3_busbar] conns=[delta wye] kVs=[22 0.433] kVAs=[300 300] xhl=3.78 %noloadloss=0.13125 %loadloss=1.46875 wdg=1 numtaps=4 tap=1 maxtap=1.137 mintap=1.028
new transformer.mv_f0_lv_MALABAR_BYRON phases=3 windings=2 buses=[mv_f0_n569 mv_f0_lv4_busbar] conns=[delta wye] kVs=[22 0.433] kVAs=[500 500] xhl=3.85 %noloadloss=0.12 %loadloss=1.3 wdg=1 numtaps=4 tap=1 maxtap=1.137 mintap=1.028
new transformer.mv_f0_lv_CHISHOLM_KERSHAW phases=3 windings=2 buses=[mv_f0_n249 mv_f0_lv5_busbar] conns=[delta wye] kVs=[22 0.433] kVAs=[500 500] xhl=3.85 %noloadloss=0.12 %loadloss=1.3 wdg=1 numtaps=4 tap=1 maxtap=1.137 mintap=1.028
new transformer.mv_f0_lv_P12_SCHOOL_ORMOND phases=3 windings=2 buses=[mv_f0_n483 mv_f0_lv6_busbar] conns=[delta wye] kVs=[22 0.433] kVAs=[500 500] xhl=3.85 %noloadloss=0.12 %loadloss=1.3 wdg=1 numtaps=4 tap=1 maxtap=1.137 mintap=1.028
new transformer.mv_f0_lv_ORMOND_SCHOOL phases=3 windings=2 buses=[mv_f0_n533 mv_f0_lv7_busbar] conns=[delta wye] kVs=[22 0.433] kVAs=[1000 1000] xhl=4.88 %noloadloss=0.102 %loadloss=1.1 wdg=1 numtaps=4 tap=1 maxtap=1.137 mintap=1.028
new transformer.mv_f0_lv_BARINGA_PARK_CASPIAN phases=3 windings=2 buses=[mv_f0_n395 mv_f0_lv8_busbar] conns=[delta wye] kVs=[22 0.433] kVAs=[300 300] xhl=3.78 %noloadloss=0.13125 %loadloss=1.46875 wdg=1 numtaps=4 tap=1 maxtap=1.137 mintap=1.028
new transformer.mv_f0_lv_TUILERIES_PROVENCE phases=3 windings=2 buses=[mv_f0_n149 mv_f0_lv9_busbar] conns=[delta wye] kVs=[22 0.433] kVAs=[300 300] xhl=3.78 %noloadloss=0.13125 %loadloss=1.46875 wdg=1 numtaps=4 tap=1 maxtap=1.137 mintap=1.028
new transformer.mv_f0_lv_HALLAM_EDEYS phases=3 windings=2 buses=[mv_f0_n437 mv_f0_lv10_busbar] conns=[delta wye] kVs=[22 0.433] kVAs=[300 300] xhl=3.78 %noloadloss=0.13125 %loadloss=1.46875 wdg=1 numtaps=4 tap=1 maxtap=1.137 mintap=1.028
new transformer.mv_f0_lv_ORMOND_STRATHAIRD phases=3 windings=2 buses=[mv_f0_n548 mv_f0_lv11_busbar] conns=[delta wye] kVs=[22 0.433] kVAs=[500 500] xhl=3.85 %noloadloss=0.12 %loadloss=1.3 wdg=1 numtaps=4 tap=1 maxtap=1.137 mintap=1.028
new transformer.mv_f0_lv_SHERWOOD_FLEET phases=3 windings=2 buses=[mv_f0_n338 mv_f0_lv12_busbar] conns=[delta wye] kVs=[22 0.433] kVAs=[500 500] xhl=3.85 %noloadloss=0.12 %loadloss=1.3 wdg=1 numtaps=4 tap=1 maxtap=1.137 mintap=1.028
new transformer.mv_f0_lv_GOLDEN_CHERRYWOOD phases=3 windings=2 buses=[mv_f0_n176 mv_f0_lv13_busbar] conns=[delta wye] kVs=[22 0.433] kVAs=[300 300] xhl=3.78 %noloadloss=0.13125 %loadloss=1.46875 wdg=1 numtaps=4 tap=1 maxtap=1.137 mintap=1.028
new transformer.mv_f0_lv_EDEYS_PIONEER phases=3 windings=2 buses=[mv_f0_n466 mv_f0_lv14_busbar] conns=[delta wye] kVs=[22 0.433] kVAs=[200 200] xhl=3.78 %noloadloss=0.13125 %loadloss=1.46875 wdg=1 numtaps=4 tap=1 maxtap=1.137 mintap=1.028
new transformer.mv_f0_lv_COMMUNITY_HARRINGTON phases=3 windings=2 buses=[mv_f0_n493 mv_f0_lv15_busbar] conns=[delta wye] kVs=[22 0.433] kVAs=[500 500] xhl=3.85 %noloadloss=0.12 %loadloss=1.3 wdg=1 numtaps=4 tap=1 maxtap=1.137 mintap=1.028
new transformer.mv_f0_lv_SPRINGFLD_KATHERINE phases=3 windings=2 buses=[mv_f0_n478 mv_f0_lv16_busbar] conns=[delta wye] kVs=[22 0.433] kVAs=[300 300] xhl=3.78 %noloadloss=0.13125 %loadloss=1.46875 wdg=1 numtaps=4 tap=1 maxtap=1.137 mintap=1.028
new transformer.mv_f0_lv_MEREDITH_HARVEY phases=3 windings=2 buses=[mv_f0_n399 mv_f0_lv17_busbar] conns=[delta wye] kVs=[22 0.433] kVAs=[200 200] xhl=3.78 %noloadloss=0.13125 %loadloss=1.46875 wdg=1 numtaps=4 tap=1 maxtap=1.137 mintap=1.028
new transformer.mv_f0_lv_SPRINGFIELD_JANET phases=3 windings=2 buses=[mv_f0_n488 mv_f0_lv18_busbar] conns=[delta wye] kVs=[22 0.433] kVAs=[200 200] xhl=3.78 %noloadloss=0.13125 %loadloss=1.46875 wdg=1 numtaps=4 tap=1 maxtap=1.137 mintap=1.028
new transformer.mv_f0_lv_SPRINGFIELD_HUNTNGTN phases=3 windings=2 buses=[mv_f0_n405 mv_f0_lv19_busbar] conns=[delta wye] kVs=[22 0.433] kVAs=[300 300] xhl=3.78 %noloadloss=0.13125 %loadloss=1.46875 wdg=1 numtaps=4 tap=1 maxtap=1.137 mintap=1.028
new transformer.mv_f0_lv_RALEIGH_LOWDEN phases=3 windings=2 buses=[mv_f0_n172 mv_f0_lv20_busbar] conns=[delta wye] kVs=[22 0.433] kVAs=[500 500] xhl=3.85 %noloadloss=0.12 %loadloss=1.3 wdg=1 numtaps=4 tap=1 maxtap=1.137 mintap=1.028
new transformer.mv_f0_lv_LEOPOLD_WENDY phases=3 windings=2 buses=[mv_f0_n422 mv_f0_lv21_busbar] conns=[delta wye] kVs=[22 0.433] kVAs=[200 200] xhl=3.78 %noloadloss=0.13125 %loadloss=1.46875 wdg=1 numtaps=4 tap=1 maxtap=1.137 mintap=1.028
new transformer.mv_f0_lv_NORWEGIAN_GLASSCOCKS phases=3 windings=2 buses=[mv_f0_n462 mv_f0_lv22_busbar] conns=[delta wye] kVs=[22 0.433] kVAs=[300 300] xhl=3.78 %noloadloss=0.13125 %loadloss=1.46875 wdg=1 numtaps=4 tap=1 maxtap=1.137 mintap=1.028
new transformer.mv_f0_lv_VON_NIDA_DULWICH phases=3 windings=2 buses=[mv_f0_n398 mv_f0_lv23_busbar] conns=[delta wye] kVs=[22 0.433] kVAs=[300 300] xhl=3.78 %noloadloss=0.13125 %loadloss=1.46875 wdg=1 numtaps=4 tap=1 maxtap=1.137 mintap=1.028
new transformer.mv_f0_lv_HALLAM_RD_RETIREMENT phases=3 windings=2 buses=[mv_f0_n62 mv_f0_lv24_busbar] conns=[delta wye] kVs=[22 0.433] kVAs=[300 300] xhl=3.78 %noloadloss=0.13125 %loadloss=1.46875 wdg=1 numtaps=4 tap=1 maxtap=1.137 mintap=1.028
new transformer.mv_f0_lv_TIMMS_STRATHAIRD phases=3 windings=2 buses=[mv_f0_n562 mv_f0_lv25_busbar] conns=[delta wye] kVs=[22 0.433] kVAs=[500 500] xhl=3.85 %noloadloss=0.12 %loadloss=1.3 wdg=1 numtaps=4 tap=1 maxtap=1.137 mintap=1.028
new transformer.mv_f0_lv_CORAL_CLAUD phases=3 windings=2 buses=[mv_f0_n205 mv_f0_lv26_busbar] conns=[delta wye] kVs=[22 0.433] kVAs=[200 200] xhl=3.78 %noloadloss=0.13125 %loadloss=1.46875 wdg=1 numtaps=4 tap=1 maxtap=1.137 mintap=1.028
new transformer.mv_f0_lv_MICHELLE_SIMON phases=3 windings=2 buses=[mv_f0_n492 mv_f0_lv27_busbar] conns=[delta wye] kVs=[22 0.433] kVAs=[315 315] xhl=3.85 %noloadloss=0.12 %loadloss=1.3 wdg=1 numtaps=4 tap=1 maxtap=1.137 mintap=1.028
new transformer.mv_f0_lv_LEOPOLD_HAZEL phases=3 windings=2 buses=[mv_f0_n222 mv_f0_lv28_busbar] conns=[delta wye] kVs=[22 0.433] kVAs=[200 200] xhl=3.78 %noloadloss=0.13125 %loadloss=1.46875 wdg=1 numtaps=4 tap=1 maxtap=1.137 mintap=1.028
new transformer.mv_f0_lv_NIMBUS_AMBER phases=3 windings=2 buses=[mv_f0_n30 mv_f0_lv29_busbar] conns=[delta wye] kVs=[22 0.433] kVAs=[500 500] xhl=3.85 %noloadloss=0.12 %loadloss=1.3 wdg=1 numtaps=4 tap=1 maxtap=1.137 mintap=1.028
new transformer.mv_f0_lv_GERALDINE_PAULINE phases=3 windings=2 buses=[mv_f0_n250 mv_f0_lv30_busbar] conns=[delta wye] kVs=[22 0.433] kVAs=[200 200] xhl=3.78 %noloadloss=0.13125 %loadloss=1.46875 wdg=1 numtaps=4 tap=1 maxtap=1.137 mintap=1.028
new transformer.mv_f0_lv_THE_PARKWAY_KARKALLA phases=3 windings=2 buses=[mv_f0_n541 mv_f0_lv31_busbar] conns=[delta wye] kVs=[22 0.433] kVAs=[300 300] xhl=3.78 %noloadloss=0.13125 %loadloss=1.46875 wdg=1 numtaps=4 tap=1 maxtap=1.137 mintap=1.028
new transformer.mv_f0_lv_LESLEY_CARMEN phases=3 windings=2 buses=[mv_f0_n266 mv_f0_lv32_busbar] conns=[delta wye] kVs=[22 0.433] kVAs=[200 200] xhl=3.78 %noloadloss=0.13125 %loadloss=1.46875 wdg=1 numtaps=4 tap=1 maxtap=1.137 mintap=1.028
new transformer.mv_f0_lv_VIEWSIDE_NEESAN phases=3 windings=2 buses=[mv_f0_n544 mv_f0_lv33_busbar] conns=[delta wye] kVs=[22 0.433] kVAs=[300 300] xhl=3.78 %noloadloss=0.13125 %loadloss=1.46875 wdg=1 numtaps=4 tap=1 maxtap=1.137 mintap=1.028
new transformer.mv_f0_lv_SALLYS_RUN_ORMOND phases=3 windings=2 buses=[mv_f0_n376 mv_f0_lv34_busbar] conns=[delta wye] kVs=[22 0.433] kVAs=[300 300] xhl=3.78 %noloadloss=0.13125 %loadloss=1.46875 wdg=1 numtaps=4 tap=1 maxtap=1.137 mintap=1.028
new transformer.mv_f0_lv_LESLEY_AMY phases=3 windings=2 buses=[mv_f0_n296 mv_f0_lv35_busbar] conns=[delta wye] kVs=[22 0.433] kVAs=[200 200] xhl=3.78 %noloadloss=0.13125 %loadloss=1.46875 wdg=1 numtaps=4 tap=1 maxtap=1.137 mintap=1.028
new transformer.mv_f0_lv_TOOMAH_STRATHARD phases=3 windings=2 buses=[mv_f0_n195 mv_f0_lv36_busbar] conns=[delta wye] kVs=[22 0.433] kVAs=[500 500] xhl=3.85 %noloadloss=0.12 %loadloss=1.3 wdg=1 numtaps=4 tap=1 maxtap=1.137 mintap=1.028
new transformer.mv_f0_lv_JESSICA_GERALDINE phases=3 windings=2 buses=[mv_f0_n331 mv_f0_lv37_busbar] conns=[delta wye] kVs=[22 0.433] kVAs=[200 200] xhl=3.78 %noloadloss=0.13125 %loadloss=1.46875 wdg=1 numtaps=4 tap=1 maxtap=1.137 mintap=1.028
new transformer.mv_f0_lv_EDEYS_MOLLISONS phases=3 windings=2 buses=[mv_f0_n23 mv_f0_lv38_busbar] conns=[delta wye] kVs=[22 0.433] kVAs=[200 200] xhl=3.78 %noloadloss=0.13125 %loadloss=1.46875 wdg=1 numtaps=4 tap=1 maxtap=1.137 mintap=1.028
...